TITLE Example 11.--Transport and ion exchange
SOLUTION 0 CaCl2
	units	mmol/kgw
	temp	25.0
        pH	7.0	charge
        pe	12.5	O2 (g)	-0.68
        Na	1.0
        N(5)	1.2
        END
EXCHANGE 1
	equilibrate 1
	X	0.0011
END
        
